# mp-984, edited to make monolayer and increase the vertical size
data_BN
_symmetry_space_group_name_H-M   'P 1'
_cell_length_a   2.51242846
_cell_length_b   2.51242846
_cell_length_c   20.0
_cell_angle_alpha   90.00000000
_cell_angle_beta   90.00000000
_cell_angle_gamma   120.00001201
_symmetry_Int_Tables_number   1
_chemical_formula_structural   BN
_chemical_formula_sum   'B1 N1'
_cell_volume   84.26520346
_cell_formula_units_Z   2
loop_
 _symmetry_equiv_pos_site_id
 _symmetry_equiv_pos_as_xyz
  1  'x, y, z'
loop_
 _atom_site_type_symbol
 _atom_site_label
 _atom_site_symmetry_multiplicity
 _atom_site_fract_x
 _atom_site_fract_y
 _atom_site_fract_z
 _atom_site_occupancy
  B  B0  1  0.33333300  0.66666700  0.192681625  1
  N  N3  1  0.66666700  0.33333300  0.192681625  1
